trattoria_core-0.4.3.dist-info/METADATA,sha256=hEGVC7KLCWy4ehe7mNDJbVc3bIfn1NstorP9eYxvEKs,448
trattoria_core-0.4.3.dist-info/WHEEL,sha256=MT3DwHY5NKmzjNPpPbf0eXsp-b7ApWmdqZ12k72Nobo,105
trattoria_core.cpython-36m-darwin.so,sha256=2tme1L6OHp62yb8M1iLlerueUSQUJLtM1yAvTP-_CDk,551856
trattoria_core-0.4.3.dist-info/RECORD,,
